Iodine-129
 OpenBabel05201411542D

  2  1  0  0  0  0  0  0  0  0999 V2000
    1.0000   -0.0000    0.0000 I   0  0  0  0  0  0  0  0  0  0  0  0
   -0.0000   -0.0000    0.0000 H   0  0  0  0  0  0  0  0  0  0  0  0
  1  2  1  0  0  0  0
M  ISO  1   1 129
M  END
$$$$
Iodine-131
 OpenBabel05201411542D

  2  1  0  0  0  0  0  0  0  0999 V2000
    1.0000   -0.0000    0.0000 I   0  0  0  0  0  0  0  0  0  0  0  0
   -0.0000   -0.0000    0.0000 I   0  0  0  0  0  0  0  0  0  0  0  0
  1  2  1  0  0  0  0
M  ISO  2   1 131   2 131
M  END
$$$$
Cesium-137
 OpenBabel05201411542D

  1  0  0  0  0  0  0  0  0  0999 V2000
    1.0000    0.0000    0.0000 Cs  0  0  0  0  0 15  0  0  0  0  0  0
M  ISO  1   1 137
M  END
$$$$
Polonium-210
 OpenBabel05201411542D

  1  0  0  0  0  0  0  0  0  0999 V2000
    1.0000    0.0000    0.0000 Po  0  0  0  0  0  0  0  0  0  0  0  0
M  ISO  1   1 210
M  END
$$$$
Radon-220
 OpenBabel05201411542D

  1  0  0  0  0  0  0  0  0  0999 V2000
    1.0000    0.0000    0.0000 Rn  0  0  0  0  0  0  0  0  0  0  0  0
M  ISO  1   1 220
M  END
$$$$
Radon-222
 OpenBabel05201411542D

  1  0  0  0  0  0  0  0  0  0999 V2000
    1.0000    0.0000    0.0000 Rn  0  0  0  0  0  0  0  0  0  0  0  0
M  ISO  1   1 222
M  END
$$$$
Actinium-227
 OpenBabel05201411542D

  1  0  0  0  0  0  0  0  0  0999 V2000
    1.0000    0.0000    0.0000 Ac  0  0  0  0  0 15  0  0  0  0  0  0
M  ISO  1   1 227
M  END
$$$$
Thorium-227
 OpenBabel05201411542D

  1  0  0  0  0  0  0  0  0  0999 V2000
    1.0000    0.0000    0.0000 Th  0  0  0  0  0 15  0  0  0  0  0  0
M  ISO  1   1 227
M  END
$$$$
Radium-228
 OpenBabel05201411542D

  1  0  0  0  0  0  0  0  0  0999 V2000
    1.0000    0.0000    0.0000 Ra  0  0  0  0  0 15  0  0  0  0  0  0
M  ISO  1   1 228
M  END
$$$$
Thorium-228
 OpenBabel05201411542D

  1  0  0  0  0  0  0  0  0  0999 V2000
    1.0000    0.0000    0.0000 Th  0  0  0  0  0 15  0  0  0  0  0  0
M  ISO  1   1 228
M  END
$$$$
Thorium-230
 OpenBabel05201411542D

  1  0  0  0  0  0  0  0  0  0999 V2000
    1.0000    0.0000    0.0000 Th  0  0  0  0  0 15  0  0  0  0  0  0
M  ISO  1   1 230
M  END
$$$$
Uranium-233
 OpenBabel05201411542D

  1  0  0  0  0  0  0  0  0  0999 V2000
    1.0000    0.0000    0.0000 U   0  0  0  0  0 15  0  0  0  0  0  0
M  ISO  1   1 233
M  END
$$$$
Uranium-234
 OpenBabel05201411542D

  1  0  0  0  0  0  0  0  0  0999 V2000
    1.0000    0.0000    0.0000 U   0  0  0  0  0 15  0  0  0  0  0  0
M  ISO  1   1 234
M  END
$$$$
Uranium-235
 OpenBabel05201411542D

  1  0  0  0  0  0  0  0  0  0999 V2000
    1.0000    0.0000    0.0000 U   0  0  0  0  0 15  0  0  0  0  0  0
M  ISO  1   1 235
M  END
$$$$
Neptunium-237
 OpenBabel05201411542D

  1  0  0  0  0  0  0  0  0  0999 V2000
    1.0000    0.0000    0.0000 Np  0  0  0  0  0 15  0  0  0  0  0  0
M  ISO  1   1 237
M  END
$$$$
Plutonium-238
 OpenBabel05201411542D

  1  0  0  0  0  0  0  0  0  0999 V2000
    1.0000    0.0000    0.0000 Pu  0  0  0  0  0 15  0  0  0  0  0  0
M  ISO  1   1 238
M  END
$$$$
Plutonium-239
 OpenBabel05201411542D

  1  0  0  0  0  0  0  0  0  0999 V2000
    1.0000    0.0000    0.0000 Pu  0  0  0  0  0 15  0  0  0  0  0  0
M  ISO  1   1 239
M  END
$$$$
Plutonium-240
 OpenBabel05201411542D

  1  0  0  0  0  0  0  0  0  0999 V2000
    1.0000    0.0000    0.0000 Pu  0  0  0  0  0 15  0  0  0  0  0  0
M  ISO  1   1 240
M  END
$$$$
Americium-241
 OpenBabel05201411542D

  1  0  0  0  0  0  0  0  0  0999 V2000
    1.0000    0.0000    0.0000 Am  0  0  0  0  0 15  0  0  0  0  0  0
M  ISO  1   1 241
M  END
$$$$
Potassium-40
 OpenBabel05201411542D

  1  0  0  0  0  0  0  0  0  0999 V2000
    1.0000    0.0000    0.0000 K   0  0  0  0  0 15  0  0  0  0  0  0
M  ISO  1   1  40
M  END
$$$$
Strontium-90
 OpenBabel05201411542D

  1  0  0  0  0  0  0  0  0  0999 V2000
    1.0000    0.0000    0.0000 Sr  0  0  0  0  0 15  0  0  0  0  0  0
M  ISO  1   1  90
M  END
$$$$
Silver
 OpenBabel05201411542D

  1  0  0  0  0  0  0  0  0  0999 V2000
    1.0000    0.0000    0.0000 Ag  0  3  0  0  0 15  0  0  0  0  0  0
M  CHG  1   1   1
M  END
$$$$
Silver sulfadiazine
 OpenBabel05201411542D

 18 18  0  0  0  0  0  0  0  0999 V2000
   -3.4219    0.1001    0.0000 Ag  0  3  0  0  0 15  0  0  0  0  0  0
    0.5000   -3.5000    0.0000 N   0  0  0  0  0  0  0  0  0  0  0  0
    1.5000   -3.5000    0.0000 C   0  0  0  0  0  0  0  0  0  0  0  0
    2.0000   -2.6340    0.0000 C   0  0  0  0  0  0  0  0  0  0  0  0
    3.0000   -2.6340    0.0000 C   0  0  0  0  0  0  0  0  0  0  0  0
    3.5000   -3.5000    0.0000 C   0  0  0  0  0  0  0  0  0  0  0  0
    3.0000   -4.3660    0.0000 C   0  0  0  0  0  0  0  0  0  0  0  0
    2.0000   -4.3660    0.0000 C   0  0  0  0  0  0  0  0  0  0  0  0
    4.5000   -3.5000    0.0000 S   0  0  0  0  0  0  0  0  0  0  0  0
    4.5000   -4.5000    0.0000 O   0  0  0  0  0  0  0  0  0  0  0  0
    5.5000   -3.5000    0.0000 O   0  0  0  0  0  0  0  0  0  0  0  0
    4.5000   -2.5000    0.0000 N   0  5  0  0  0  0  0  0  0  0  0  0
    5.3660   -2.0000    0.0000 C   0  0  0  0  0  0  0  0  0  0  0  0
    5.3660   -1.0000    0.0000 N   0  0  0  0  0  0  0  0  0  0  0  0
    6.2321   -0.5000    0.0000 C   0  0  0  0  0  0  0  0  0  0  0  0
    7.0981   -1.0000    0.0000 C   0  0  0  0  0  0  0  0  0  0  0  0
    7.0981   -2.0000    0.0000 C   0  0  0  0  0  0  0  0  0  0  0  0
    6.2321   -2.5000    0.0000 N   0  0  0  0  0  0  0  0  0  0  0  0
  2  3  1  0  0  0  0
  3  8  1  0  0  0  0
  3  4  2  0  0  0  0
  4  5  1  0  0  0  0
  5  6  2  0  0  0  0
  6  7  1  0  0  0  0
  6  9  1  0  0  0  0
  7  8  2  0  0  0  0
  9 10  2  0  0  0  0
  9 11  2  0  0  0  0
  9 12  1  0  0  0  0
 12 13  1  0  0  0  0
 13 18  1  0  0  0  0
 13 14  2  0  0  0  0
 14 15  1  0  0  0  0
 15 16  2  0  0  0  0
 16 17  1  0  0  0  0
 17 18  2  0  0  0  0
M  CHG  2   1   1  12  -1
M  END
$$$$
Aluminum
 OpenBabel05201411542D

  1  0  0  0  0  0  0  0  0  0999 V2000
    1.0000    0.0000    0.0000 Al  0  1  0  0  0 15  0  0  0  0  0  0
M  CHG  1   1   3
M  END
$$$$
Americium
 OpenBabel05201411542D

  1  0  0  0  0  0  0  0  0  0999 V2000
    1.0000    0.0000    0.0000 Am  0  0  0  0  0 15  0  0  0  0  0  0
M  END
$$$$
Cadmium arsenide
 OpenBabel05201411542D

  5  2  0  0  0  0  0  0  0  0999 V2000
    1.5000   -0.5000    0.0000 As  0  0  0  0  0  0  0  0  0  0  0  0
    0.5000   -0.5000    0.0000 Cd  0  0  0  0  0  0  0  0  0  0  0  0
    1.5000   -1.5000    0.0000 As  0  0  0  0  0  0  0  0  0  0  0  0
    0.5000   -1.5000    0.0000 Cd  0  0  0  0  0  0  0  0  0  0  0  0
   -0.2547   -0.8472    0.0000 Cd  0  0  0  0  0 15  0  0  0  0  0  0
  1  2  2  0  0  0  0
  3  4  2  0  0  0  0
M  RAD  2   1   3   3   3
M  END
$$$$
Arsenic
 OpenBabel05201411542D

  1  0  0  0  0  0  0  0  0  0999 V2000
    1.0000    0.0000    0.0000 As  0  1  0  0  0 15  0  0  0  0  0  0
M  CHG  1   1   3
M  END
$$$$
Arsine
 OpenBabel05201411542D

  4  3  0  0  0  0  0  0  0  0999 V2000
   -0.0000    1.0000    0.0000 As  0  0  0  0  0  0  0  0  0  0  0  0
    0.8660    1.5000    0.0000 H   0  0  0  0  0  0  0  0  0  0  0  0
   -0.8660    1.5000    0.0000 H   0  0  0  0  0  0  0  0  0  0  0  0
   -0.0000   -0.0000    0.0000 H   0  0  0  0  0  0  0  0  0  0  0  0
  1  2  1  0  0  0  0
  1  3  1  0  0  0  0
  1  4  1  0  0  0  0
M  END
$$$$
Barium
 OpenBabel05201411542D

  1  0  0  0  0  0  0  0  0  0999 V2000
    1.0000    0.0000    0.0000 Ba  0  2  0  0  0 15  0  0  0  0  0  0
M  CHG  1   1   2
M  END
$$$$
Beryllium
 OpenBabel05201411542D

  1  0  0  0  0  0  0  0  0  0999 V2000
    1.0000    0.0000    0.0000 Be  0  2  0  0  0 15  0  0  0  0  0  0
M  CHG  1   1   2
M  END
$$$$
Bromine
 OpenBabel05201411542D

  1  0  0  0  0  0  0  0  0  0999 V2000
    1.0000    0.0000    0.0000 Br  0  5  0  0  0  0  0  0  0  0  0  0
M  CHG  1   1  -1
M  END
$$$$
Cadmium bromide
 OpenBabel05201411542D

  3  0  0  0  0  0  0  0  0  0999 V2000
    1.0000    0.0000    0.0000 Br  0  5  0  0  0  0  0  0  0  0  0  0
    0.0000   -0.0000    0.0000 Br  0  5  0  0  0  0  0  0  0  0  0  0
    0.0000   -0.0000    0.0000 Cd  0  2  0  0  0 15  0  0  0  0  0  0
M  CHG  3   1  -1   2  -1   3   2
M  END
$$$$
Cyanide
 OpenBabel05201411542D

  2  1  0  0  0  0  0  0  0  0999 V2000
    1.0000   -0.0000    0.0000 C   0  5  0  0  0  0  0  0  0  0  0  0
   -0.0000   -0.0000    0.0000 N   0  0  0  0  0  0  0  0  0  0  0  0
  1  2  3  0  0  0  0
M  CHG  1   1  -1
M  END
$$$$
Carbon monoxide
 OpenBabel05201411542D

  2  1  0  0  0  0  0  0  0  0999 V2000
    1.0000   -0.0000    0.0000 C   0  0  0  0  0  0  0  0  0  0  0  0
   -0.0000   -0.0000    0.0000 O   0  0  0  0  0  0  0  0  0  0  0  0
  1  2  3  0  0  0  0
M  RAD  1   1   2
M  END
$$$$
Cadmium telluride
 OpenBabel05201411542D

  2  1  0  0  0  0  0  0  0  0999 V2000
    1.0000   -0.0000    0.0000 Cd  0  0  0  0  0  0  0  0  0  0  0  0
   -0.0000   -0.0000    0.0000 Te  0  0  0  0  0  0  0  0  0  0  0  0
  1  2  2  0  0  0  0
M  RAD  1   2   2
M  END
$$$$
Mercury cadmium telluride
 OpenBabel05201411542D

  3  2  0  0  0  0  0  0  0  0999 V2000
    1.7321   -0.0000    0.0000 Cd  0  0  0  0  0  0  0  0  0  0  0  0
    0.8660    0.5000    0.0000 Te  0  0  0  0  0  0  0  0  0  0  0  0
   -0.0000   -0.0000    0.0000 Hg  0  0  0  0  0  0  0  0  0  0  0  0
  1  2  2  0  0  0  0
  2  3  2  0  0  0  0
M  END
$$$$
Cadmium
 OpenBabel05201411542D

  1  0  0  0  0  0  0  0  0  0999 V2000
    1.0000    0.0000    0.0000 Cd  0  2  0  0  0 15  0  0  0  0  0  0
M  CHG  1   1   2
M  END
$$$$
Cadmium iodide
 OpenBabel05201411542D

  3  0  0  0  0  0  0  0  0  0999 V2000
    1.0000    0.0000    0.0000 Cd  0  2  0  0  0 15  0  0  0  0  0  0
    0.0000   -0.0000    0.0000 I   0  5  0  0  0  0  0  0  0  0  0  0
    0.0000   -0.0000    0.0000 I   0  5  0  0  0  0  0  0  0  0  0  0
M  CHG  3   1   2   2  -1   3  -1
M  END
$$$$
Chlorine
 OpenBabel05201411542D

  1  0  0  0  0  0  0  0  0  0999 V2000
    1.0000    0.0000    0.0000 Cl  0  5  0  0  0  0  0  0  0  0  0  0
M  CHG  1   1  -1
M  END
$$$$
Cobalt
 OpenBabel05201411542D

  1  0  0  0  0  0  0  0  0  0999 V2000
    1.0000    0.0000    0.0000 Co  0  2  0  0  0 15  0  0  0  0  0  0
M  CHG  1   1   2
M  END
$$$$
